12

C       6.86898030       0.06118692      -0.00004011
C       6.16670117       1.27452468       0.00002196
C       4.76802624       1.27660054      -0.00001361
H       4.24174315       2.22401765       0.00000505
H       4.23478068      -2.09434573      -0.00000195
H       6.68934255      -2.09816081      -0.00006772
H       6.69629603       2.22018475       0.00003044
S       8.45188435       0.06285028      -0.00009258
S       2.47919836       0.06305149       0.00009744
C       4.06209041       0.06465340      -0.00001361
C       4.76437154      -1.14868381      -0.00001361
C       6.16303947      -1.15075782      -0.00003323
