27

Au      -5.76999133      -3.33130605     -18.84471279
Au      -4.32749350      -0.83282651     -18.84471279
Au      -2.88499567       1.66565303     -18.84471279
Au      -2.88499567      -3.33130605     -18.84471279
Au      -1.44249783      -0.83282651     -18.84471279
Au       0.00000000       1.66565303     -18.84471279
Au       0.00000000      -3.33130605     -18.84471279
Au       1.44249783      -0.83282651     -18.84471279
Au       2.88499567       1.66565303     -18.84471279
Au      -4.32749350      -2.49847954     -14.13353459
Au      -2.88499567       0.00000000     -14.13353459
Au      -1.44249783       2.49847954     -14.13353459
Au      -1.44249783      -2.49847954     -14.13353459
Au       0.00000000       0.00000000     -14.13353459
Au       1.44249783       2.49847954     -14.13353459
Au       1.44249783      -2.49847954     -14.13353459
Au       2.88499567       0.00000000     -14.13353459
Au       4.32749350       2.49847954     -14.13353459
Au      -2.88499567      -1.66565303     -16.48912369
Au      -1.44249783       0.83282651     -16.48912369
Au       0.00000000       3.33130605     -16.48912369
Au       0.00000000      -1.66565303     -16.48912369
Au       1.44249783       0.83282651     -16.48912369
Au       2.88499567       3.33130605     -16.48912369
Au       2.88499567      -1.66565303     -16.48912369
Au       4.32749350       0.83282651     -16.48912369
Au       5.76999133       3.33130605     -16.48912369