9

Au       0.00000000      -1.44249800      -2.49848000
Au       0.00000000      -0.00000000       0.00000000
Au       0.00000000       1.44249800       2.49848000
Au       0.00000000      -2.88499600      -0.00000000
Au       0.00000000      -1.44249800       2.49848000
Au       0.00000000      -0.00000000       4.99695900
Au       0.00000000      -0.00000000      -4.99695900
Au       0.00000000       1.44249800      -2.49848000
Au       0.00000000       2.88499600      -0.00000000
