54

Au	 15.582168	-0.883307	-3.936247
Au	 15.582168	 0.559191	-1.437767
Au	 15.582168	 2.001688	 1.060712
Au	 15.582168	-2.325805	-1.437767
Au	 15.582168	-0.883307	 1.060712
Au	 15.582168	 0.559191	 3.559192
Au	 10.870990	 0.559191	-4.769073
Au	 10.870990	 2.001688	-2.270594
Au	 10.870990	 3.444186	 0.227886
Au	 10.870990	-0.883307	-2.270594
Au	 10.870990	 0.559191	 0.227886
Au	 10.870990	 2.001688	 2.726365
Au	 10.870990	-2.325805	 0.227886
Au	 10.870990	-0.883307	 2.726365
Au	 10.870990	 0.559191	 5.224845
Au	 13.226579	 0.559191	-3.103420
Au	 13.226579	 2.001688	-0.604941
Au	 13.226579	 3.444186	 1.893539
Au	 13.226579	-0.883307	-0.604941
Au	 13.226579	 0.559191	 1.893539
Au	 13.226579	 2.001688	 4.392018
Au	 13.226579	-2.325805	 1.893539
Au	 13.226579	-0.883307	 4.392018
Au	 13.226579	 0.559191	 6.890498
Au	 15.582168	 0.559191	-6.434726
Au	 15.582168	 2.001688	-3.936247
Au	 15.582168	 3.444186	-1.437767
Au	 22.649168	-0.883307	-3.936247
Au	 22.649168	 0.559191	-1.437767
Au	 22.649168	 2.001688	 1.060712
Au	 22.649168	-2.325805	-1.437767
Au	 22.649168	-0.883307	 1.060712
Au	 22.649168	 0.559191	 3.559192
Au	 17.937990	 0.559191	-4.769073
Au	 17.937990	 2.001688	-2.270594
Au	 17.937990	 3.444186	 0.227886
Au	 17.937990	-0.883307	-2.270594
Au	 17.937990	 0.559191	 0.227886
Au	 17.937990	 2.001688	 2.726365
Au	 17.937990	-2.325805	 0.227886
Au	 17.937990	-0.883307	 2.726365
Au	 17.937990	 0.559191	 5.224845
Au	 20.293579	 0.559191	-3.103420
Au	 20.293579	 2.001688	-0.604941
Au	 20.293579	 3.444186	 1.893539
Au	 20.293579	-0.883307	-0.604941
Au	 20.293579	 0.559191	 1.893539
Au	 20.293579	 2.001688	 4.392018
Au	 20.293579	-2.325805	 1.893539
Au	 20.293579	-0.883307	 4.392018
Au	 20.293579	 0.559191	 6.890498
Au	 22.649168	 0.559191	-6.434726
Au	 22.649168	 2.001688	-3.936247
Au	 22.649168	 3.444186	-1.437767