18

Au      10.87098998       0.55919062      -4.76907316
Au      10.87098998       2.00168846      -2.27059362
Au      10.87098998       3.44418629       0.22788593
Au      10.87098998      -0.88330722      -2.27059362
Au      10.87098998       0.55919062       0.22788592
Au      10.87098998       2.00168846       2.72636546
Au      10.87098998      -2.32580505       0.22788591
Au      10.87098998      -0.88330722       2.72636546
Au      10.87098998       0.55919062       5.22484500
Au      13.22657908       0.55919062      -3.10342013
Au      13.22657908       2.00168845      -0.60494059
Au      13.22657908       3.44418629       1.89353895
Au      13.22657908      -0.88330722      -0.60494060
Au      13.22657908       0.55919062       1.89353894
Au      13.22657908       2.00168845       4.39201849
Au      13.22657908      -2.32580505       1.89353894
Au      13.22657908      -0.88330722       4.39201848
Au      13.22657908       0.55919062       6.89049802
